
     RDKit          3D

  5  3  0  0  0  0  0  0  0  0999 V2000
    0.6138   -0.4050    0.2186 O   0  0  0  0  0  0  0  0  0  0  0  0
   -0.6172   -0.4065   -0.2177 O   0  0  0  0  0  0  0  0  0  0  0  0
    1.0662    0.4041   -0.1266 H   0  0  0  0  0  0  0  0  0  0  0  0
   -1.0628    0.4074    0.1257 H   0  0  0  0  0  0  0  0  0  0  0  0
    0.0000    0.0000    0.0000 H   0  0  0  0  0 15  0  0  0  0  0  0
  1  2  1  0
  1  3  1  0
  2  4  1  0
M  END
